// -*- C++ -*-
// File generated by PyFoam - sorry for the ugliness

FoamFile
{
 version 2.0;
 format ascii;
 class dictionary;
 object configDict;
}

global
{
  boundingBox
(0 0 0 1 1 1);
  elementLength 0.008;
  fluidDistance 0.01;
  gravity
(0 0 -9.81);
  temperature 293.15;
  temperatureIn 293.15;
  tunnel no;
  velocity
(0 0 0);
}

solids
{
}

blanks
{
}

baffles
{
}

rotations
{
}

refinements
{
}

fluids
{
}

