/*--------------------------------*- C++ -*----------------------------------*\
| =========                 |                                                 |
| \\      /  F ield         | OpenFOAM: The Open Source CFD Toolbox           |
|  \\    /   O peration     | Version:  2.3.x                                 |
|   \\  /    A nd           | Web:      www.OpenFOAM.org                      |
|    \\/     M anipulation  |                                                 |
\*---------------------------------------------------------------------------*/
FoamFile
{
    version     2.0;
    format      ascii;
    class       polyBoundaryMesh;
    location    "constant/polyMesh";
    object      boundary;
}
// * * * * * * * * * * * * * * * * * * * * * * * * * * * * * * * * * * * * * //

11
(
    minX
    {
        type            patch;
        nFaces          169;
        startFace       21137;
    }
    maxX
    {
        type            patch;
        nFaces          169;
        startFace       21306;
    }
    minY
    {
        type            patch;
        nFaces          234;
        startFace       21475;
    }
    maxY
    {
        type            patch;
        nFaces          234;
        startFace       21709;
    }
    minZ
    {
        type            patch;
        nFaces          234;
        startFace       21943;
    }
    maxZ
    {
        type            patch;
        nFaces          234;
        startFace       22177;
    }
    solid1
    {
        type            wall;
        inGroups        1(wall);
        nFaces          0;
        startFace       22411;
    }
    solid1_slave
    {
        type            wall;
        inGroups        1(wall);
        nFaces          0;
        startFace       22411;
    }
    solid2
    {
        type            wall;
        inGroups        1(wall);
        nFaces          0;
        startFace       22411;
    }
    solid2_slave
    {
        type            wall;
        inGroups        1(wall);
        nFaces          0;
        startFace       22411;
    }
    oldInternalFaces
    {
        type            empty;
        inGroups        1(empty);
        nFaces          24;
        startFace       22411;
    }
)

// ************************************************************************* //
