/*--------------------------------*- C++ -*----------------------------------*\
| =========                 |                                                 |
| \\      /  F ield         | OpenFOAM: The Open Source CFD Toolbox           |
|  \\    /   O peration     | Version:  2.3.0                                 |
|   \\  /    A nd           | Web:      www.OpenFOAM.org                      |
|    \\/     M anipulation  |                                                 |
\*---------------------------------------------------------------------------*/
FoamFile
{
    version     2.0;
    format      ascii;
    class       dictionary;
    object      topoSetDict;
}
// * * * * * * * * * * * * * * * * * * * * * * * * * * * * * * * * * * * * * //

#include "./system/codeDict"

actions $:config.topoSet.actions;

//actions
//(
//    {
//        name    ROT1;
//        type    cellSet;
//        action  new;
//        source  cylinderToCell;
//        sourceInfo
//        {
//           p1       (0.2 0.2 -10);
//           p2       (0.2 0.2 0);
//           radius   5.0;
//        }
//    }

//    {
//        name    ROT1;
//        type    cellZoneSet;
//        action  new;
//        source  setToCellZone;
//        sourceInfo
//        {
//            set ROT1;
//        }
//    }
//);

#remove config;

// ************************************************************************* //
