/*--------------------------------*- C++ -*----------------------------------*\
| =========                 |                                                 |
| \\      /  F ield         | OpenFOAM: The Open Source CFD Toolbox           |
|  \\    /   O peration     | Version:  2.3.0                                 |
|   \\  /    A nd           | Web:      www.OpenFOAM.org                      |
|    \\/     M anipulation  |                                                 |
\*---------------------------------------------------------------------------*/
FoamFile
{
    version     2.0;
    format      ascii;
    class       volScalarField;
    object      T;
}
// * * * * * * * * * * * * * * * * * * * * * * * * * * * * * * * * * * * * * //

#include        "./system/includeDict"

dimensions      [0 0 0 1 0 0 0];

internalField   uniform $:config.temperature.start;

boundaryField
{
    ".*"
    {
        type        zeroGradient;
        value       $internalField;
    }

    coupledWall
    {
        type        compressible::myturbulentTemperatureCoupledBaffleMixed;
        Tnbr        T;
        kappa       solidThermo;
        kappaName   none;
        value       $internalField;
    }

    coupledRadiationWall
    {
        type        compressible::turbulentTemperatureRadCoupledMixed;
        Tnbr        T;
        kappa       solidThermo;
        kappaName   none;
        Qr          none;
        QrNbr       Qr;
        value       $internalField; 
    }

    $:config.boundaryFields.T.SOLID
}

#remove config;

// ************************************************************************* //
