/*--------------------------------*- C++ -*----------------------------------*\
| =========                 |                                                 |
| \\      /  F ield         | OpenFOAM: The Open Source CFD Toolbox           |
|  \\    /   O peration     | Version:  2.3.x                                 |
|   \\  /    A nd           | Web:      www.OpenFOAM.org                      |
|    \\/     M anipulation  |                                                 |
\*---------------------------------------------------------------------------*/
FoamFile
{
    version     2.0;
    format      ascii;
    class       dictionary;
    location    "system";
    object      blockMeshParamDict;
}
// * * * * * * * * * * * * * * * * * * * * * * * * * * * * * * * * * * * * * //

#include "configDict";

fluidBoundingBox
{
    minX            -6.0;
    minY            -3;
    minZ            -3;
    maxX            3;
    maxY            3;
    maxZ            3;
}

solidBoundingBox
{
    minX            -1;
    minY            -1;
    minZ            -1;
    maxX            1;
    maxY            1;
    maxZ            1;
}

edgeLength
{
    minX            5;
    minY            5;
    minZ            5;
    midX            10;
    midY            10;
    midZ            10;
    maxX            5;
    maxY            5;
    maxZ            5;
}

gradient
{
    minX            0.5;
    minY            0.5;
    minZ            0.5;
    midX            1;
    midY            1;
    midZ            1;
    maxX            2;
    maxY            2;
    maxZ            2;
}


// ************************************************************************* //
