/*--------------------------------*- C++ -*----------------------------------*\
| =========                 |                                                 |
| \\      /  F ield         | OpenFOAM: The Open Source CFD Toolbox           |
|  \\    /   O peration     | Version:  2.3.x                                 |
|   \\  /    A nd           | Web:      www.OpenFOAM.org                      |
|    \\/     M anipulation  |                                                 |
\*---------------------------------------------------------------------------*/
FoamFile
{
    version     2.0;
    format      ascii;
    class       dictionary;
    location    "system";
    object      configDict;
}
// * * * * * * * * * * * * * * * * * * * * * * * * * * * * * * * * * * * * * //

domain
{
    elementLength   0.002;
    fluidDistance   6 { 0.01 };
    boundingBox     ( -0.005 -0.005 -0.005 ) ( 0.015 0.005 0.005 );
    outerGradient   1.2;
    open            yes;
}

parameter
{
    temperature     293.15;
    gravity         ( 0 0 -9.81 );
    inlet
    {
        velocity        ( 0 0 0 );
        temperature     293.15;
    }
}

solids
{
    solid1
    {
        conductivity    210;
        elementLength   0.001;
        emissivity      0.8;
        power           0;
        fileType        stl;
    }
    solid2
    {
        conductivity    210;
        elementLength   0.001;
        emissivity      0.8;
        power           0;
        fileType        stl;
    }
}

blanks
{
}

baffles
{
}

rotations
{
}

refinements
{
}

fluids
{
}
// ************************************************************************* //
