/*--------------------------------*- C++ -*----------------------------------*\
| =========                 |                                                 |
| \\      /  F ield         | OpenFOAM: The Open Source CFD Toolbox           |
|  \\    /   O peration     | Version:  2.3.x                                 |
|   \\  /    A nd           | Web:      www.OpenFOAM.org                      |
|    \\/     M anipulation  |                                                 |
\*---------------------------------------------------------------------------*/
FoamFile
{
    version     2.0;
    format      binary;
    class       dictionary;
    location    "system";
    object      geometryDict;
}
// * * * * * * * * * * * * * * * * * * * * * * * * * * * * * * * * * * * * * //

boundingBox     2 ( ( -0.005 -0.005 -0.005 ) ( 0.015 0.005 0.005 ) );

solids
{
    solid1
    {
        elementLength   0.001;
        conductivity    210;
        emissivity      0.8;
        power           1.5;
    }
    solid2
    {
        elementLength   0.001;
        conductivity    210;
        emissivity      0.8;
        power           0;
    }
}

blanks
{
}

baffles
{
}

rotations
{
}

refinements
{
}


// ************************************************************************* //
