/*--------------------------------*- C++ -*----------------------------------*\
| =========                 |                                                 |
| \\      /  F ield         | OpenFOAM: The Open Source CFD Toolbox           |
|  \\    /   O peration     | Version:  2.3.x                                 |
|   \\  /    A nd           | Web:      www.OpenFOAM.org                      |
|    \\/     M anipulation  |                                                 |
\*---------------------------------------------------------------------------*/
FoamFile
{
    version     2.0;
    format      ascii;
    class       dictionary;
    location    "system";
    object      includeDict;
}
// * * * * * * * * * * * * * * * * * * * * * * * * * * * * * * * * * * * * * //

config
{
    elementLength   0.002;
    d               0.01;
    fluidDistance   ( ( 0.01 0.01 0.01 ) ( 0.01 0.01 0.01 ) );
    elementGradient 1.2;
    open            yes;
    gravity         ( 0 0 -9.81 );
    radiation
    {
        model           fvDOM;
        frequency       20;
    }
    temperature
    {
        start           293.15;
        min             293.15;
        max             500;
    }
    inlet
    {
        velocity        ( 0 0 0 );
        temperature     293.15;
    }
    boundingBox     2 ( ( -0.005 -0.005 -0.005 ) ( 0.015 0.005 0.005 ) );
    solids
    {
        solid1
        {
            elementLength   0.001;
            conductivity    210;
            emissivity      0.8;
            power           1.5;
        }
        solid2
        {
            elementLength   0.001;
            conductivity    210;
            emissivity      0.8;
            power           0;
        }
    }
    blanks
    {
    }
    baffles
    {
    }
    rotations
    {
    }
    refinements
    {
    }
    blockMesh
    {
        blocks          27 ( hex 8 ( 0 1 5 4 16 17 21 20 ) ( 4 4 4 ) simpleGrading ( 0.5787037037 0.5787037037 0.5787037037 ) hex 8 ( 1 2 6 5 17 18 22 21 ) ( 10 4 4 ) simpleGrading ( 1 0.5787037037 0.5787037037 ) hex 8 ( 2 3 7 6 18 19 23 22 ) ( 4 4 4 ) simpleGrading ( 1.728 0.5787037037 0.5787037037 ) hex 8 ( 4 5 9 8 20 21 25 24 ) ( 4 5 4 ) simpleGrading ( 0.5787037037 1 0.5787037037 ) hex 8 ( 5 6 10 9 21 22 26 25 ) ( 10 5 4 ) simpleGrading ( 1 1 0.5787037037 ) hex 8 ( 6 7 11 10 22 23 27 26 ) ( 4 5 4 ) simpleGrading ( 1.728 1 0.5787037037 ) hex 8 ( 8 9 13 12 24 25 29 28 ) ( 4 4 4 ) simpleGrading ( 0.5787037037 1.728 0.5787037037 ) hex 8 ( 9 10 14 13 25 26 30 29 ) ( 10 4 4 ) simpleGrading ( 1 1.728 0.5787037037 ) hex 8 ( 10 11 15 14 26 27 31 30 ) ( 4 4 4 ) simpleGrading ( 1.728 1.728 0.5787037037 ) hex 8 ( 16 17 21 20 32 33 37 36 ) ( 4 4 5 ) simpleGrading ( 0.5787037037 0.5787037037 1 ) hex 8 ( 17 18 22 21 33 34 38 37 ) ( 10 4 5 ) simpleGrading ( 1 0.5787037037 1 ) hex 8 ( 18 19 23 22 34 35 39 38 ) ( 4 4 5 ) simpleGrading ( 1.728 0.5787037037 1 ) hex 8 ( 20 21 25 24 36 37 41 40 ) ( 4 5 5 ) simpleGrading ( 0.5787037037 1 1 ) hex 8 ( 21 22 26 25 37 38 42 41 ) ( 10 5 5 ) simpleGrading ( 1 1 1 ) hex 8 ( 22 23 27 26 38 39 43 42 ) ( 4 5 5 ) simpleGrading ( 1.728 1 1 ) hex 8 ( 24 25 29 28 40 41 45 44 ) ( 4 4 5 ) simpleGrading ( 0.5787037037 1.728 1 ) hex 8 ( 25 26 30 29 41 42 46 45 ) ( 10 4 5 ) simpleGrading ( 1 1.728 1 ) hex 8 ( 26 27 31 30 42 43 47 46 ) ( 4 4 5 ) simpleGrading ( 1.728 1.728 1 ) hex 8 ( 32 33 37 36 48 49 53 52 ) ( 4 4 4 ) simpleGrading ( 0.5787037037 0.5787037037 1.728 ) hex 8 ( 33 34 38 37 49 50 54 53 ) ( 10 4 4 ) simpleGrading ( 1 0.5787037037 1.728 ) hex 8 ( 34 35 39 38 50 51 55 54 ) ( 4 4 4 ) simpleGrading ( 1.728 0.5787037037 1.728 ) hex 8 ( 36 37 41 40 52 53 57 56 ) ( 4 5 4 ) simpleGrading ( 0.5787037037 1 1.728 ) hex 8 ( 37 38 42 41 53 54 58 57 ) ( 10 5 4 ) simpleGrading ( 1 1 1.728 ) hex 8 ( 38 39 43 42 54 55 59 58 ) ( 4 5 4 ) simpleGrading ( 1.728 1 1.728 ) hex 8 ( 40 41 45 44 56 57 61 60 ) ( 4 4 4 ) simpleGrading ( 0.5787037037 1.728 1.728 ) hex 8 ( 41 42 46 45 57 58 62 61 ) ( 10 4 4 ) simpleGrading ( 1 1.728 1.728 ) hex 8 ( 42 43 47 46 58 59 63 62 ) ( 4 4 4 ) simpleGrading ( 1.728 1.728 1.728 ) );
        vertices        64 ( ( -0.015 -0.015 -0.015 ) ( -0.005 -0.015 -0.015 ) ( 0.015 -0.015 -0.015 ) ( 0.025 -0.015 -0.015 ) ( -0.015 -0.005 -0.015 ) ( -0.005 -0.005 -0.015 ) ( 0.015 -0.005 -0.015 ) ( 0.025 -0.005 -0.015 ) ( -0.015 0.005 -0.015 ) ( -0.005 0.005 -0.015 ) ( 0.015 0.005 -0.015 ) ( 0.025 0.005 -0.015 ) ( -0.015 0.015 -0.015 ) ( -0.005 0.015 -0.015 ) ( 0.015 0.015 -0.015 ) ( 0.025 0.015 -0.015 ) ( -0.015 -0.015 -0.005 ) ( -0.005 -0.015 -0.005 ) ( 0.015 -0.015 -0.005 ) ( 0.025 -0.015 -0.005 ) ( -0.015 -0.005 -0.005 ) ( -0.005 -0.005 -0.005 ) ( 0.015 -0.005 -0.005 ) ( 0.025 -0.005 -0.005 ) ( -0.015 0.005 -0.005 ) ( -0.005 0.005 -0.005 ) ( 0.015 0.005 -0.005 ) ( 0.025 0.005 -0.005 ) ( -0.015 0.015 -0.005 ) ( -0.005 0.015 -0.005 ) ( 0.015 0.015 -0.005 ) ( 0.025 0.015 -0.005 ) ( -0.015 -0.015 0.005 ) ( -0.005 -0.015 0.005 ) ( 0.015 -0.015 0.005 ) ( 0.025 -0.015 0.005 ) ( -0.015 -0.005 0.005 ) ( -0.005 -0.005 0.005 ) ( 0.015 -0.005 0.005 ) ( 0.025 -0.005 0.005 ) ( -0.015 0.005 0.005 ) ( -0.005 0.005 0.005 ) ( 0.015 0.005 0.005 ) ( 0.025 0.005 0.005 ) ( -0.015 0.015 0.005 ) ( -0.005 0.015 0.005 ) ( 0.015 0.015 0.005 ) ( 0.025 0.015 0.005 ) ( -0.015 -0.015 0.015 ) ( -0.005 -0.015 0.015 ) ( 0.015 -0.015 0.015 ) ( 0.025 -0.015 0.015 ) ( -0.015 -0.005 0.015 ) ( -0.005 -0.005 0.015 ) ( 0.015 -0.005 0.015 ) ( 0.025 -0.005 0.015 ) ( -0.015 0.005 0.015 ) ( -0.005 0.005 0.015 ) ( 0.015 0.005 0.015 ) ( 0.025 0.005 0.015 ) ( -0.015 0.015 0.015 ) ( -0.005 0.015 0.015 ) ( 0.015 0.015 0.015 ) ( 0.025 0.015 0.015 ) );
    }
    snappyHexMesh
    {
        geometry
        {
            solid1.obj
            {
                name            solid1;
                type            triSurfaceMesh;
            }
            solid2.obj
            {
                name            solid2;
                type            triSurfaceMesh;
            }
        }
        refinementSurfaces
        {
            solid1
            {
                level           2 { 1 };
                cellZone        solid1;
                faceZone        solid1;
                cellZoneInside  inside;
            }
            solid2
            {
                level           2 { 1 };
                cellZone        solid2;
                faceZone        solid2;
                cellZoneInside  inside;
            }
        }
        refinementRegions
        {
        }
        locationInMesh  ( -0.00499 -0.00499 -0.00499 );
    }
    changeDictionary
    {
        coupledWallType coupledRadiationWall;
        outlet          maxZ;
    }
    fvOptions
    {
        solid1
        {
            heatSource
            {
                active          true;
                selectionMode   all;
                type            scalarSemiImplicitSource;
                scalarSemiImplicitSourceCoeffs
                {
                    volumeMode      absolute;
                    injectionRateSuSp
                    {
                        h               ( 1.5 0 );
                    }
                }
            }
        }
        solid2
        {
        }
    }
    topoSet
    {
        actions         0 ( );
    }
}


// ************************************************************************* //
