// -*- C++ -*-
// File generated by PyFoam - sorry for the ugliness

FoamFile
{
 version 2.0;
 format ascii; 	
 class dictionary; 	
 object changeDictionaryDict; 	
}

dictionaryReplacement
{
  boundary
  {
      "oldInternalFaces"
      {
        type wall;
      }
  }
  T
  {
    internalField uniform 353.15;
    boundaryField
    {
      "\w.*"
      {
        type zeroGradient;
        value $internalField; 	
      }
      ".*to_F.*"
      {
        type compressible::turbulentTemperatureRadCoupledMixed;
        Tnbr T; 	
        kappa solidThermo; 	
        QrNbr Qr; 	
        Qr none; 	
        kappaName none; 	
        value $internalField; 	
      } 	
      ".*to_[^F].*"
      {
        type            compressible::turbulentTemperatureCoupledBaffleMixed;
        Tnbr T;
        kappa               solidThermo;
        kappaName           none;
        value           $internalField;
      } 	
    } 	
  }
  p	
  {
    internalField uniform 1e5;
    boundaryField
    {
      ".*"
      {
        type calculated;
        value $internalField;
      }
    }
  }
}

