/*--------------------------------*- C++ -*----------------------------------*\
| =========                 |                                                 |
| \\      /  F ield         | OpenFOAM: The Open Source CFD Toolbox           |
|  \\    /   O peration     | Version:  2.3.0                                 |
|   \\  /    A nd           | Web:      www.OpenFOAM.org                      |
|    \\/     M anipulation  |                                                 |
\*---------------------------------------------------------------------------*/
FoamFile
{
    version     2.0;
    format      ascii;
    class       dictionary;
    object      blockMeshDict;
}
// * * * * * * * * * * * * * * * * * * * * * * * * * * * * * * * * * * * * * //

fminX -3.0;
fminY -3.0;
fminZ -3.0;

fmaxX  3.0;
fmaxY  3.0;
fmaxZ  3.0;

bminX -1.0;
bminY -1.0;
bminZ -1.0;

bmaxX  1.0;
bmaxY  1.0;
bmaxZ  1.0;

eminX 5;
eminY 5;
eminZ 5;

emidX 10;
emidY 10;
emidZ 10;

emaxX 5;
emaxY 5;
emaxZ 5;

gminX 0.5;
gminY 0.5;
gminZ 0.5;

gmidX 1.0;
gmidY 1.0;
gmidZ 1.0;

gmaxX 2.0;
gmaxY 2.0;
gmaxZ 2.0;

// ************************************************************************* //
